!-Generator IDFEditor 1.53
!-Option SortedOrder

!-NOTE: All comments with '!-' are ignored by the IDFEditor and are generated automatically.
!-      Use '!' comments if they need to be retained when using the IDFEditor.


!-   ===========  ALL OBJECTS IN CLASS: SCHEDULETYPELIMITS ===========

ScheduleTypeLimits,
    Fraction,                !- Name
    0,                       !- Lower Limit Value
    1,                       !- Upper Limit Value
    Continuous;              !- Numeric Type

ScheduleTypeLimits,
    Temperature,             !- Name
    ,                        !- Lower Limit Value
    ,                        !- Upper Limit Value
    Continuous,              !- Numeric Type
    temperature;             !- Unit Type


!-   ===========  ALL OBJECTS IN CLASS: SCHEDULE:COMPACT ===========

Schedule:Compact,
    AUS_Occupancy_Schedule,  !- Name
    Fraction,                !- Schedule Type Limits Name
    Through: 12/31,          !- Field 1
    For: WinterDesignDay,    !- Field 2
    Until: 24:00,            !- Field 3
    0.0,                     !- Field 4
    For: SummerDesignDay,    !- Field 5
    Until: 24:00,            !- Field 6
    1.0,                     !- Field 7
    For: Weekdays,           !- Field 8
    Until: 01:00,            !- Field 9
    0,                       !- Field 10
    Until: 02:00,            !- Field 11
    0,                       !- Field 12
    Until: 03:00,            !- Field 13
    0,                       !- Field 14
    Until: 04:00,            !- Field 15
    0,                       !- Field 16
    Until: 05:00,            !- Field 17
    0,                       !- Field 18
    Until: 06:00,            !- Field 19
    0,                       !- Field 20
    Until: 07:00,            !- Field 21
    0,                       !- Field 22
    Until: 08:00,            !- Field 23
    0.15,                    !- Field 24
    Until: 09:00,            !- Field 25
    0.6,                     !- Field 26
    Until: 10:00,            !- Field 27
    1,                       !- Field 28
    Until: 11:00,            !- Field 29
    1,                       !- Field 30
    Until: 12:00,            !- Field 31
    1,                       !- Field 32
    Until: 13:00,            !- Field 33
    1,                       !- Field 34
    Until: 14:00,            !- Field 35
    1,                       !- Field 36
    Until: 15:00,            !- Field 37
    1,                       !- Field 38
    Until: 16:00,            !- Field 39
    1,                       !- Field 40
    Until: 17:00,            !- Field 41
    1,                       !- Field 42
    Until: 18:00,            !- Field 43
    0.5,                     !- Field 44
    Until: 19:00,            !- Field 45
    0.15,                    !- Field 46
    Until: 20:00,            !- Field 47
    0.05,                    !- Field 48
    Until: 21:00,            !- Field 49
    0.05,                    !- Field 50
    Until: 22:00,            !- Field 51
    0,                       !- Field 52
    Until: 23:00,            !- Field 53
    0,                       !- Field 54
    Until: 24:00,            !- Field 55
    0,                       !- Field 56
    For: Saturday,           !- Field 57
    Until: 01:00,            !- Field 58
    0,                       !- Field 59
    Until: 02:00,            !- Field 60
    0,                       !- Field 61
    Until: 03:00,            !- Field 62
    0,                       !- Field 63
    Until: 04:00,            !- Field 64
    0,                       !- Field 65
    Until: 05:00,            !- Field 66
    0,                       !- Field 67
    Until: 06:00,            !- Field 68
    0,                       !- Field 69
    Until: 07:00,            !- Field 70
    0,                       !- Field 71
    Until: 08:00,            !- Field 72
    0,                       !- Field 73
    Until: 09:00,            !- Field 74
    0,                       !- Field 75
    Until: 10:00,            !- Field 76
    0,                       !- Field 77
    Until: 11:00,            !- Field 78
    0,                       !- Field 79
    Until: 12:00,            !- Field 80
    0,                       !- Field 81
    Until: 13:00,            !- Field 82
    0,                       !- Field 83
    Until: 14:00,            !- Field 84
    0,                       !- Field 85
    Until: 15:00,            !- Field 86
    0,                       !- Field 87
    Until: 16:00,            !- Field 88
    0,                       !- Field 89
    Until: 17:00,            !- Field 90
    0,                       !- Field 91
    Until: 18:00,            !- Field 92
    0,                       !- Field 93
    Until: 19:00,            !- Field 94
    0,                       !- Field 95
    Until: 20:00,            !- Field 96
    0,                       !- Field 97
    Until: 21:00,            !- Field 98
    0,                       !- Field 99
    Until: 22:00,            !- Field 100
    0,                       !- Field 101
    Until: 23:00,            !- Field 102
    0,                       !- Field 103
    Until: 24:00,            !- Field 104
    0,                       !- Field 105
    For:Sunday Holidays AllOtherDays,  !- Field 106
    Until: 01:00,            !- Field 107
    0,                       !- Field 108
    Until: 02:00,            !- Field 109
    0,                       !- Field 110
    Until: 03:00,            !- Field 111
    0,                       !- Field 112
    Until: 04:00,            !- Field 113
    0,                       !- Field 114
    Until: 05:00,            !- Field 115
    0,                       !- Field 116
    Until: 06:00,            !- Field 117
    0,                       !- Field 118
    Until: 07:00,            !- Field 119
    0,                       !- Field 120
    Until: 08:00,            !- Field 121
    0,                       !- Field 122
    Until: 09:00,            !- Field 123
    0,                       !- Field 124
    Until: 10:00,            !- Field 125
    0,                       !- Field 126
    Until: 11:00,            !- Field 127
    0,                       !- Field 128
    Until: 12:00,            !- Field 129
    0,                       !- Field 130
    Until: 13:00,            !- Field 131
    0,                       !- Field 132
    Until: 14:00,            !- Field 133
    0,                       !- Field 134
    Until: 15:00,            !- Field 135
    0,                       !- Field 136
    Until: 16:00,            !- Field 137
    0,                       !- Field 138
    Until: 17:00,            !- Field 139
    0,                       !- Field 140
    Until: 18:00,            !- Field 141
    0,                       !- Field 142
    Until: 19:00,            !- Field 143
    0,                       !- Field 144
    Until: 20:00,            !- Field 145
    0,                       !- Field 146
    Until: 21:00,            !- Field 147
    0,                       !- Field 148
    Until: 22:00,            !- Field 149
    0,                       !- Field 150
    Until: 23:00,            !- A153
    0,                       !- A154
    Until: 24:00,            !- A155
    0;                       !- A156

Schedule:Compact,
    BRA_Occupancy_Schedule,  !- Name
    Fraction,                !- Schedule Type Limits Name
    Through: 12/31,          !- Field 1
    For: WinterDesignDay,    !- Field 2
    Until: 24:00,            !- Field 3
    0.0,                     !- Field 4
    For: SummerDesignDay,    !- Field 5
    Until: 24:00,            !- Field 6
    1.0,                     !- Field 7
    For: Weekdays,           !- Field 8
    Until: 01:00,            !- Field 9
    0,                       !- Field 10
    Until: 02:00,            !- Field 11
    0,                       !- Field 12
    Until: 03:00,            !- Field 13
    0,                       !- Field 14
    Until: 04:00,            !- Field 15
    0,                       !- Field 16
    Until: 05:00,            !- Field 17
    0,                       !- Field 18
    Until: 06:00,            !- Field 19
    0,                       !- Field 20
    Until: 07:00,            !- Field 21
    0,                       !- Field 22
    Until: 08:00,            !- Field 23
    0,                       !- Field 24
    Until: 09:00,            !- Field 25
    1,                       !- Field 26
    Until: 10:00,            !- Field 27
    1,                       !- Field 28
    Until: 11:00,            !- Field 29
    1,                       !- Field 30
    Until: 12:00,            !- Field 31
    1,                       !- Field 32
    Until: 13:00,            !- Field 33
    1,                       !- Field 34
    Until: 14:00,            !- Field 35
    1,                       !- Field 36
    Until: 15:00,            !- Field 37
    1,                       !- Field 38
    Until: 16:00,            !- Field 39
    1,                       !- Field 40
    Until: 17:00,            !- Field 41
    1,                       !- Field 42
    Until: 18:00,            !- Field 43
    1,                       !- Field 44
    Until: 19:00,            !- Field 45
    0,                       !- Field 46
    Until: 20:00,            !- Field 47
    0,                       !- Field 48
    Until: 21:00,            !- Field 49
    0,                       !- Field 50
    Until: 22:00,            !- Field 51
    0,                       !- Field 52
    Until: 23:00,            !- Field 53
    0,                       !- Field 54
    Until: 24:00,            !- Field 55
    0,                       !- Field 56
    For: Saturday,           !- Field 57
    Until: 01:00,            !- Field 58
    0,                       !- Field 59
    Until: 02:00,            !- Field 60
    0,                       !- Field 61
    Until: 03:00,            !- Field 62
    0,                       !- Field 63
    Until: 04:00,            !- Field 64
    0,                       !- Field 65
    Until: 05:00,            !- Field 66
    0,                       !- Field 67
    Until: 06:00,            !- Field 68
    0,                       !- Field 69
    Until: 07:00,            !- Field 70
    0,                       !- Field 71
    Until: 08:00,            !- Field 72
    0,                       !- Field 73
    Until: 09:00,            !- Field 74
    0,                       !- Field 75
    Until: 10:00,            !- Field 76
    0,                       !- Field 77
    Until: 11:00,            !- Field 78
    0,                       !- Field 79
    Until: 12:00,            !- Field 80
    0,                       !- Field 81
    Until: 13:00,            !- Field 82
    0,                       !- Field 83
    Until: 14:00,            !- Field 84
    0,                       !- Field 85
    Until: 15:00,            !- Field 86
    0,                       !- Field 87
    Until: 16:00,            !- Field 88
    0,                       !- Field 89
    Until: 17:00,            !- Field 90
    0,                       !- Field 91
    Until: 18:00,            !- Field 92
    0,                       !- Field 93
    Until: 19:00,            !- Field 94
    0,                       !- Field 95
    Until: 20:00,            !- Field 96
    0,                       !- Field 97
    Until: 21:00,            !- Field 98
    0,                       !- Field 99
    Until: 22:00,            !- Field 100
    0,                       !- Field 101
    Until: 23:00,            !- Field 102
    0,                       !- Field 103
    Until: 24:00,            !- Field 104
    0,                       !- Field 105
    For:Sunday Holidays AllOtherDays,  !- Field 106
    Until: 01:00,            !- Field 107
    0,                       !- Field 108
    Until: 02:00,            !- Field 109
    0,                       !- Field 110
    Until: 03:00,            !- Field 111
    0,                       !- Field 112
    Until: 04:00,            !- Field 113
    0,                       !- Field 114
    Until: 05:00,            !- Field 115
    0,                       !- Field 116
    Until: 06:00,            !- Field 117
    0,                       !- Field 118
    Until: 07:00,            !- Field 119
    0,                       !- Field 120
    Until: 08:00,            !- Field 121
    0,                       !- Field 122
    Until: 09:00,            !- Field 123
    0,                       !- Field 124
    Until: 10:00,            !- Field 125
    0,                       !- Field 126
    Until: 11:00,            !- Field 127
    0,                       !- Field 128
    Until: 12:00,            !- Field 129
    0,                       !- Field 130
    Until: 13:00,            !- Field 131
    0,                       !- Field 132
    Until: 14:00,            !- Field 133
    0,                       !- Field 134
    Until: 15:00,            !- Field 135
    0,                       !- Field 136
    Until: 16:00,            !- Field 137
    0,                       !- Field 138
    Until: 17:00,            !- Field 139
    0,                       !- Field 140
    Until: 18:00,            !- Field 141
    0,                       !- Field 142
    Until: 19:00,            !- Field 143
    0,                       !- Field 144
    Until: 20:00,            !- Field 145
    0,                       !- Field 146
    Until: 21:00,            !- Field 147
    0,                       !- Field 148
    Until: 22:00,            !- Field 149
    0,                       !- Field 150
    Until: 23:00,            !- A153
    0,                       !- A154
    Until: 24:00,            !- A155
    0;                       !- A156

Schedule:Compact,
    CAN_Occupancy_Schedule,  !- Name
    Fraction,                !- Schedule Type Limits Name
    Through: 12/31,          !- Field 1
    For: WinterDesignDay,    !- Field 2
    Until: 24:00,            !- Field 3
    0.0,                     !- Field 4
    For: SummerDesignDay,    !- Field 5
    Until: 24:00,            !- Field 6
    1.0,                     !- Field 7
    For: Weekdays,           !- Field 8
    Until: 01:00,            !- Field 9
    0,                       !- Field 10
    Until: 02:00,            !- Field 11
    0,                       !- Field 12
    Until: 03:00,            !- Field 13
    0,                       !- Field 14
    Until: 04:00,            !- Field 15
    0,                       !- Field 16
    Until: 05:00,            !- Field 17
    0,                       !- Field 18
    Until: 06:00,            !- Field 19
    0,                       !- Field 20
    Until: 07:00,            !- Field 21
    0.1,                     !- Field 22
    Until: 08:00,            !- Field 23
    0.7,                     !- Field 24
    Until: 09:00,            !- Field 25
    0.9,                     !- Field 26
    Until: 10:00,            !- Field 27
    0.9,                     !- Field 28
    Until: 11:00,            !- Field 29
    0.9,                     !- Field 30
    Until: 12:00,            !- Field 31
    0.5,                     !- Field 32
    Until: 13:00,            !- Field 33
    0.5,                     !- Field 34
    Until: 14:00,            !- Field 35
    0.9,                     !- Field 36
    Until: 15:00,            !- Field 37
    0.9,                     !- Field 38
    Until: 16:00,            !- Field 39
    0.9,                     !- Field 40
    Until: 17:00,            !- Field 41
    0.7,                     !- Field 42
    Until: 18:00,            !- Field 43
    0.3,                     !- Field 44
    Until: 19:00,            !- Field 45
    0.1,                     !- Field 46
    Until: 20:00,            !- Field 47
    0.1,                     !- Field 48
    Until: 21:00,            !- Field 49
    0.1,                     !- Field 50
    Until: 22:00,            !- Field 51
    0.1,                     !- Field 52
    Until: 23:00,            !- Field 53
    0,                       !- Field 54
    Until: 24:00,            !- Field 55
    0,                       !- Field 56
    For: Saturday,           !- Field 57
    Until: 01:00,            !- Field 58
    0,                       !- Field 59
    Until: 02:00,            !- Field 60
    0,                       !- Field 61
    Until: 03:00,            !- Field 62
    0,                       !- Field 63
    Until: 04:00,            !- Field 64
    0,                       !- Field 65
    Until: 05:00,            !- Field 66
    0,                       !- Field 67
    Until: 06:00,            !- Field 68
    0,                       !- Field 69
    Until: 07:00,            !- Field 70
    0,                       !- Field 71
    Until: 08:00,            !- Field 72
    0,                       !- Field 73
    Until: 09:00,            !- Field 74
    0,                       !- Field 75
    Until: 10:00,            !- Field 76
    0,                       !- Field 77
    Until: 11:00,            !- Field 78
    0,                       !- Field 79
    Until: 12:00,            !- Field 80
    0,                       !- Field 81
    Until: 13:00,            !- Field 82
    0,                       !- Field 83
    Until: 14:00,            !- Field 84
    0,                       !- Field 85
    Until: 15:00,            !- Field 86
    0,                       !- Field 87
    Until: 16:00,            !- Field 88
    0,                       !- Field 89
    Until: 17:00,            !- Field 90
    0,                       !- Field 91
    Until: 18:00,            !- Field 92
    0,                       !- Field 93
    Until: 19:00,            !- Field 94
    0,                       !- Field 95
    Until: 20:00,            !- Field 96
    0,                       !- Field 97
    Until: 21:00,            !- Field 98
    0,                       !- Field 99
    Until: 22:00,            !- Field 100
    0,                       !- Field 101
    Until: 23:00,            !- Field 102
    0,                       !- Field 103
    Until: 24:00,            !- Field 104
    0,                       !- Field 105
    For:Sunday Holidays AllOtherDays,  !- Field 106
    Until: 01:00,            !- Field 107
    0,                       !- Field 108
    Until: 02:00,            !- Field 109
    0,                       !- Field 110
    Until: 03:00,            !- Field 111
    0,                       !- Field 112
    Until: 04:00,            !- Field 113
    0,                       !- Field 114
    Until: 05:00,            !- Field 115
    0,                       !- Field 116
    Until: 06:00,            !- Field 117
    0,                       !- Field 118
    Until: 07:00,            !- Field 119
    0,                       !- Field 120
    Until: 08:00,            !- Field 121
    0,                       !- Field 122
    Until: 09:00,            !- Field 123
    0,                       !- Field 124
    Until: 10:00,            !- Field 125
    0,                       !- Field 126
    Until: 11:00,            !- Field 127
    0,                       !- Field 128
    Until: 12:00,            !- Field 129
    0,                       !- Field 130
    Until: 13:00,            !- Field 131
    0,                       !- Field 132
    Until: 14:00,            !- Field 133
    0,                       !- Field 134
    Until: 15:00,            !- Field 135
    0,                       !- Field 136
    Until: 16:00,            !- Field 137
    0,                       !- Field 138
    Until: 17:00,            !- Field 139
    0,                       !- Field 140
    Until: 18:00,            !- Field 141
    0,                       !- Field 142
    Until: 19:00,            !- Field 143
    0,                       !- Field 144
    Until: 20:00,            !- Field 145
    0,                       !- Field 146
    Until: 21:00,            !- Field 147
    0,                       !- Field 148
    Until: 22:00,            !- Field 149
    0,                       !- Field 150
    Until: 23:00,            !- A153
    0,                       !- A154
    Until: 24:00,            !- A155
    0;                       !- A156

Schedule:Compact,
    CHE_Occupancy_Schedule,  !- Name
    Fraction,                !- Schedule Type Limits Name
    Through: 12/31,          !- Field 1
    For: WinterDesignDay,    !- Field 2
    Until: 24:00,            !- Field 3
    0.0,                     !- Field 4
    For: SummerDesignDay,    !- Field 5
    Until: 24:00,            !- Field 6
    1.0,                     !- Field 7
    For: Weekdays,           !- Field 8
    Until: 01:00,            !- Field 9
    0,                       !- Field 10
    Until: 02:00,            !- Field 11
    0,                       !- Field 12
    Until: 03:00,            !- Field 13
    0,                       !- Field 14
    Until: 04:00,            !- Field 15
    0,                       !- Field 16
    Until: 05:00,            !- Field 17
    0,                       !- Field 18
    Until: 06:00,            !- Field 19
    0,                       !- Field 20
    Until: 07:00,            !- Field 21
    0,                       !- Field 22
    Until: 08:00,            !- Field 23
    0.2,                     !- Field 24
    Until: 09:00,            !- Field 25
    0.6,                     !- Field 26
    Until: 10:00,            !- Field 27
    1,                       !- Field 28
    Until: 11:00,            !- Field 29
    1,                       !- Field 30
    Until: 12:00,            !- Field 31
    0.8,                     !- Field 32
    Until: 13:00,            !- Field 33
    0.4,                     !- Field 34
    Until: 14:00,            !- Field 35
    0.6,                     !- Field 36
    Until: 15:00,            !- Field 37
    1,                       !- Field 38
    Until: 16:00,            !- Field 39
    0.8,                     !- Field 40
    Until: 17:00,            !- Field 41
    0.6,                     !- Field 42
    Until: 18:00,            !- Field 43
    0.2,                     !- Field 44
    Until: 19:00,            !- Field 45
    0,                       !- Field 46
    Until: 20:00,            !- Field 47
    0,                       !- Field 48
    Until: 21:00,            !- Field 49
    0,                       !- Field 50
    Until: 22:00,            !- Field 51
    0,                       !- Field 52
    Until: 23:00,            !- Field 53
    0,                       !- Field 54
    Until: 24:00,            !- Field 55
    0,                       !- Field 56
    For: Saturday,           !- Field 57
    Until: 01:00,            !- Field 58
    0,                       !- Field 59
    Until: 02:00,            !- Field 60
    0,                       !- Field 61
    Until: 03:00,            !- Field 62
    0,                       !- Field 63
    Until: 04:00,            !- Field 64
    0,                       !- Field 65
    Until: 05:00,            !- Field 66
    0,                       !- Field 67
    Until: 06:00,            !- Field 68
    0,                       !- Field 69
    Until: 07:00,            !- Field 70
    0,                       !- Field 71
    Until: 08:00,            !- Field 72
    0,                       !- Field 73
    Until: 09:00,            !- Field 74
    0,                       !- Field 75
    Until: 10:00,            !- Field 76
    0,                       !- Field 77
    Until: 11:00,            !- Field 78
    0,                       !- Field 79
    Until: 12:00,            !- Field 80
    0,                       !- Field 81
    Until: 13:00,            !- Field 82
    0,                       !- Field 83
    Until: 14:00,            !- Field 84
    0,                       !- Field 85
    Until: 15:00,            !- Field 86
    0,                       !- Field 87
    Until: 16:00,            !- Field 88
    0,                       !- Field 89
    Until: 17:00,            !- Field 90
    0,                       !- Field 91
    Until: 18:00,            !- Field 92
    0,                       !- Field 93
    Until: 19:00,            !- Field 94
    0,                       !- Field 95
    Until: 20:00,            !- Field 96
    0,                       !- Field 97
    Until: 21:00,            !- Field 98
    0,                       !- Field 99
    Until: 22:00,            !- Field 100
    0,                       !- Field 101
    Until: 23:00,            !- Field 102
    0,                       !- Field 103
    Until: 24:00,            !- Field 104
    0,                       !- Field 105
    For:Sunday Holidays AllOtherDays,  !- Field 106
    Until: 01:00,            !- Field 107
    0,                       !- Field 108
    Until: 02:00,            !- Field 109
    0,                       !- Field 110
    Until: 03:00,            !- Field 111
    0,                       !- Field 112
    Until: 04:00,            !- Field 113
    0,                       !- Field 114
    Until: 05:00,            !- Field 115
    0,                       !- Field 116
    Until: 06:00,            !- Field 117
    0,                       !- Field 118
    Until: 07:00,            !- Field 119
    0,                       !- Field 120
    Until: 08:00,            !- Field 121
    0,                       !- Field 122
    Until: 09:00,            !- Field 123
    0,                       !- Field 124
    Until: 10:00,            !- Field 125
    0,                       !- Field 126
    Until: 11:00,            !- Field 127
    0,                       !- Field 128
    Until: 12:00,            !- Field 129
    0,                       !- Field 130
    Until: 13:00,            !- Field 131
    0,                       !- Field 132
    Until: 14:00,            !- Field 133
    0,                       !- Field 134
    Until: 15:00,            !- Field 135
    0,                       !- Field 136
    Until: 16:00,            !- Field 137
    0,                       !- Field 138
    Until: 17:00,            !- Field 139
    0,                       !- Field 140
    Until: 18:00,            !- Field 141
    0,                       !- Field 142
    Until: 19:00,            !- Field 143
    0,                       !- Field 144
    Until: 20:00,            !- Field 145
    0,                       !- Field 146
    Until: 21:00,            !- Field 147
    0,                       !- Field 148
    Until: 22:00,            !- Field 149
    0,                       !- Field 150
    Until: 23:00,            !- A153
    0,                       !- A154
    Until: 24:00,            !- A155
    0;                       !- A156

Schedule:Compact,
    CHN_Occupancy_Schedule,  !- Name
    Fraction,                !- Schedule Type Limits Name
    Through: 12/31,          !- Field 1
    For: WinterDesignDay,    !- Field 2
    Until: 24:00,            !- Field 3
    0.0,                     !- Field 4
    For: SummerDesignDay,    !- Field 5
    Until: 24:00,            !- Field 6
    1.0,                     !- Field 7
    For: Weekdays,           !- Field 8
    Until: 01:00,            !- Field 9
    0,                       !- Field 10
    Until: 02:00,            !- Field 11
    0,                       !- Field 12
    Until: 03:00,            !- Field 13
    0,                       !- Field 14
    Until: 04:00,            !- Field 15
    0,                       !- Field 16
    Until: 05:00,            !- Field 17
    0,                       !- Field 18
    Until: 06:00,            !- Field 19
    0,                       !- Field 20
    Until: 07:00,            !- Field 21
    0,                       !- Field 22
    Until: 08:00,            !- Field 23
    0.1,                     !- Field 24
    Until: 09:00,            !- Field 25
    0.5,                     !- Field 26
    Until: 10:00,            !- Field 27
    0.95,                    !- Field 28
    Until: 11:00,            !- Field 29
    0.95,                    !- Field 30
    Until: 12:00,            !- Field 31
    0.95,                    !- Field 32
    Until: 13:00,            !- Field 33
    0.8,                     !- Field 34
    Until: 14:00,            !- Field 35
    0.8,                     !- Field 36
    Until: 15:00,            !- Field 37
    0.95,                    !- Field 38
    Until: 16:00,            !- Field 39
    0.95,                    !- Field 40
    Until: 17:00,            !- Field 41
    0.95,                    !- Field 42
    Until: 18:00,            !- Field 43
    0.95,                    !- Field 44
    Until: 19:00,            !- Field 45
    0.3,                     !- Field 46
    Until: 20:00,            !- Field 47
    0.3,                     !- Field 48
    Until: 21:00,            !- Field 49
    0,                       !- Field 50
    Until: 22:00,            !- Field 51
    0,                       !- Field 52
    Until: 23:00,            !- Field 53
    0,                       !- Field 54
    Until: 24:00,            !- Field 55
    0,                       !- Field 56
    For: Saturday,           !- Field 57
    Until: 01:00,            !- Field 58
    0,                       !- Field 59
    Until: 02:00,            !- Field 60
    0,                       !- Field 61